 CRYSTAL
 PRIMVEC
   13.433500000    0.000000000    0.000000000
   -6.716750000   11.633752262    0.000000000
    0.000000000    0.000000000   13.934700000
 PRIMCOORD
           5           1
H         3.209901816    4.201740652    5.118849272
H         3.618784009    4.202458712    5.754917412
O         4.822105716    5.596425470    3.458298586
O         4.796956746    2.865880719    3.333666103
Ti        5.152377456    4.189075313    4.264411855
